/*--------------------------------*- C++ -*----------------------------------*\
| =========                 |                                                 |
| \\      /  F ield         | OpenFOAM Extend Project: Open Source CFD        |
|  \\    /   O peration     | Version:  X.X-ext                               |
|   \\  /    A nd           | Web:      www.extend-project.de                 |
|    \\/     M anipulation  |                                                 |
\*---------------------------------------------------------------------------*/
FoamFile
{
    version     2.0;
    format      ascii;
    class       dictionary;
    location    "constant";
    object      myTransportProperties;
}
// * * * * * * * * * * * * * * * * * * * * * * * * * * * * * * * * * * * * * //

gas
{
    mu                 mu    [1 -1 -1 0 0 0 0] 1.86e-05;
    gamma              gamma [0 0 0 0 0 0 0] 1.4;
    beta               beta  [0 0 0 0 0 0 0] 0.00154011027003978;
    Rn                 Rn    [0 1 0 0 0 0 0] 0.000184;
    aimedRn          aimedRn [0 1 0 0 0 0 0] 0.000184;
    pMin               pMin  [1 -1 -2 0 0 0 0] 2.5; // 2337;
    specGasConst       specGasConst [0 2 -2 -1 0 0 0] 287.0; //287.
}

liquid
{
    mu                 mu    [1 -1 -1 0 0 0 0] 0.001002;
    gamma              gamma [0 0 0 0 0 0 0] 7.15; //7;
    rho                rho   [1 -3 0 0 0 0 0] 998.20608789369; //998.20608789369
    B                  B     [1 -1 -2 0 0 0 0] 305000000.0; //3046e5; //calc(3000*101325); //304600000;
    pInf               pInf  [1 -1 -2 0 0 0 0] 101315;
}

sigma              sigma   [1 0 -2 0 0 0 0] 0.0725;
psiZero            psiZero [0 -2 2 0 0 0 0] 1e-16; // must be near 0. but never 0.
Tref               Tref    [0 0 0 1 0 0 0] 293.15;

t_transit        t_transit [0 0 1 0 0 0 0] 5e-05;